* Extracted by KLayout with SG13G2 LVS runset on : 21/03/2026 09:49

.SUBCKT LC_VCO_PLL 1 2 3 4 9 10 12 15 18 21 23 24 29 30 31 32 33 41 60 67 73 80
+ 81 83 84 95 96 97 98 102 104 105 109 118 132 148 151 162 165 166 167 168 201
+ 202 210 212 213 215 217 218 220 222 223 227 229 232 246 247 257 258 260 265
+ 267 268 270 272 274 275 278 289 290 291 292 320 327 328 335 345 346 347 348
+ 349 354 394 395 396 397 399 400 414 415 416 417 418 419 422 423 424 431 432
+ 434 437 439 440 457 458 459 460 461 462 463 489 491 492 524 525 527 529 550
+ 551 560 563 565 566 570 571 574 575 594 595 597 598 606 609 629 632 634 635
+ 636 637 638 639 646 648 650 651 653 671 681 682 683 684 685 686 687 694 696
+ 697 700 713 717 718 719 723 724 725 729 730 769 774 775 782 819 860 862 863
+ 870 872 877 879 888 890 891 894 903 904 906 909 912
M$1 1 4 2 1 sg13_lv_nmos L=0.13u W=0.74u AS=0.2516p AD=0.2516p PS=2.16u PD=2.16u
M$2 1 3 1 1 sg13_lv_nmos L=1u W=217.14u AS=58.8966p AD=58.8966p PS=615.2u
+ PD=615.2u
M$50 5 26 7 1 sg13_lv_nmos L=0.13u W=0.42u AS=0.1296p AD=0.0798p PS=1.52u
+ PD=0.8u
M$51 7 25 42 1 sg13_lv_nmos L=0.13u W=0.42u AS=0.0798p AD=0.2373p PS=0.8u
+ PD=1.97u
M$52 25 26 1 1 sg13_lv_nmos L=0.13u W=0.74u AS=0.2516p AD=0.317325p PS=2.16u
+ PD=1.805u
M$53 1 210 26 1 sg13_lv_nmos L=0.13u W=0.74u AS=0.317325p AD=0.2516p PS=1.805u
+ PD=2.16u
M$54 43 26 27 1 sg13_lv_nmos L=0.13u W=0.42u AS=0.1428p AD=0.12665p PS=1.52u
+ PD=1.145u
M$55 27 25 6 1 sg13_lv_nmos L=0.13u W=0.74u AS=0.12665p AD=0.3473p PS=1.145u
+ PD=2.71u
M$56 8 27 1 1 sg13_lv_nmos L=0.13u W=0.74u AS=0.2516p AD=0.1406p PS=2.16u
+ PD=1.12u
M$57 1 8 9 1 sg13_lv_nmos L=0.13u W=0.74u AS=0.1406p AD=0.2516p PS=1.12u
+ PD=2.16u
M$60 10 11 44 1 sg13_lv_nmos L=0.13u W=0.74u AS=0.2516p AD=0.1406p PS=2.16u
+ PD=1.12u
M$61 44 12 1 1 sg13_lv_nmos L=0.13u W=0.74u AS=0.1406p AD=0.1898p PS=1.12u
+ PD=1.36u
M$62 1 67 44 1 sg13_lv_nmos L=0.13u W=0.74u AS=0.1898p AD=0.2516p PS=1.36u
+ PD=2.16u
M$63 11 12 48 1 sg13_lv_nmos L=0.13u W=0.64u AS=0.2176p AD=0.0784p PS=1.96u
+ PD=0.885u
M$64 48 67 1 1 sg13_lv_nmos L=0.13u W=0.64u AS=0.0784p AD=0.2272p PS=0.885u
+ PD=1.99u
M$65 1 29 14 1 sg13_lv_nmos L=0.13u W=0.55u AS=0.15245p AD=0.174625p PS=1.17u
+ PD=1.185u
M$66 14 30 1 1 sg13_lv_nmos L=0.13u W=0.55u AS=0.174625p AD=0.374p PS=1.185u
+ PD=2.46u
M$67 1 14 12 1 sg13_lv_nmos L=0.13u W=0.74u AS=0.3108p AD=0.1628p PS=2.32u
+ PD=1.18u
M$68 12 29 49 1 sg13_lv_nmos L=0.13u W=0.74u AS=0.1628p AD=0.0888p PS=1.18u
+ PD=0.98u
M$69 49 30 1 1 sg13_lv_nmos L=0.13u W=0.74u AS=0.0888p AD=0.15245p PS=0.98u
+ PD=1.17u
M$70 1 30 15 1 sg13_lv_nmos L=0.13u W=0.74u AS=0.2516p AD=0.1406p PS=2.16u
+ PD=1.12u
M$71 15 29 1 1 sg13_lv_nmos L=0.13u W=0.74u AS=0.1406p AD=0.2516p PS=1.12u
+ PD=2.16u
M$72 1 165 50 1 sg13_lv_nmos L=0.13u W=0.74u AS=0.2516p AD=0.09435p PS=2.16u
+ PD=0.995u
M$73 50 2 17 1 sg13_lv_nmos L=0.13u W=0.74u AS=0.09435p AD=0.1406p PS=0.995u
+ PD=1.12u
M$74 17 31 1 1 sg13_lv_nmos L=0.13u W=0.74u AS=0.1406p AD=0.3811p PS=1.12u
+ PD=2.51u
M$75 1 17 18 1 sg13_lv_nmos L=0.13u W=1.48u AS=0.3922p AD=0.3922p PS=3.28u
+ PD=3.28u
M$77 1 15 31 1 sg13_lv_nmos L=0.13u W=0.74u AS=0.2516p AD=0.1406p PS=2.16u
+ PD=1.12u
M$78 31 166 1 1 sg13_lv_nmos L=0.13u W=0.74u AS=0.1406p AD=0.2516p PS=1.12u
+ PD=2.16u
M$81 1 9 19 1 sg13_lv_nmos L=0.13u W=0.55u AS=0.374p AD=0.174625p PS=2.46u
+ PD=1.185u
M$82 19 30 1 1 sg13_lv_nmos L=0.13u W=0.55u AS=0.174625p AD=0.15245p PS=1.185u
+ PD=1.17u
M$83 1 9 51 1 sg13_lv_nmos L=0.13u W=0.74u AS=0.15245p AD=0.0888p PS=1.17u
+ PD=0.98u
M$84 51 30 21 1 sg13_lv_nmos L=0.13u W=0.74u AS=0.0888p AD=0.1628p PS=0.98u
+ PD=1.18u
M$85 21 19 1 1 sg13_lv_nmos L=0.13u W=0.74u AS=0.1628p AD=0.3108p PS=1.18u
+ PD=2.32u
M$86 1 21 52 1 sg13_lv_nmos L=0.13u W=0.74u AS=0.2516p AD=0.1406p PS=2.16u
+ PD=1.12u
M$87 52 32 23 1 sg13_lv_nmos L=0.13u W=0.74u AS=0.1406p AD=0.1406p PS=1.12u
+ PD=1.12u
M$88 23 33 1 1 sg13_lv_nmos L=0.13u W=0.74u AS=0.1406p AD=0.2516p PS=1.12u
+ PD=2.16u
M$105 1 95 24 1 sg13_lv_nmos L=0.13u W=0.74u AS=0.2516p AD=0.2516p PS=2.16u
+ PD=2.16u
M$106 1 95 96 1 sg13_lv_nmos L=0.13u W=0.74u AS=0.2516p AD=0.2516p PS=2.16u
+ PD=2.16u
M$108 1 97 61 1 sg13_lv_nmos L=0.13u W=0.55u AS=0.18945p AD=0.187p PS=1.27u
+ PD=1.78u
M$109 1 97 110 1 sg13_lv_nmos L=0.13u W=0.74u AS=0.18945p AD=0.13135p PS=1.27u
+ PD=1.095u
M$110 110 67 53 1 sg13_lv_nmos L=0.13u W=0.74u AS=0.13135p AD=0.1628p PS=1.095u
+ PD=1.18u
M$111 53 9 111 1 sg13_lv_nmos L=0.13u W=0.74u AS=0.1628p AD=0.3367p PS=1.18u
+ PD=1.65u
M$112 111 61 1 1 sg13_lv_nmos L=0.13u W=0.74u AS=0.3367p AD=0.148p PS=1.65u
+ PD=1.14u
M$113 1 53 41 1 sg13_lv_nmos L=0.13u W=0.74u AS=0.148p AD=0.4033p PS=1.14u
+ PD=2.57u
M$114 1 7 6 1 sg13_lv_nmos L=0.13u W=0.74u AS=0.1626p AD=0.2516p PS=1.415u
+ PD=2.16u
M$115 5 41 45 1 sg13_lv_nmos L=0.13u W=0.42u AS=0.1428p AD=0.0609p PS=1.52u
+ PD=0.71u
M$116 1 24 45 1 sg13_lv_nmos L=0.13u W=0.42u AS=0.1626p AD=0.0609p PS=1.415u
+ PD=0.71u
M$117 1 24 46 1 sg13_lv_nmos L=0.13u W=0.42u AS=0.1701p AD=0.0378p PS=1.65u
+ PD=0.6u
M$118 46 6 42 1 sg13_lv_nmos L=0.13u W=0.42u AS=0.0378p AD=0.1428p PS=0.6u
+ PD=1.52u
M$119 62 98 86 1 sg13_lv_nmos L=0.13u W=0.42u AS=0.1428p AD=0.0609p PS=1.52u
+ PD=0.71u
M$120 86 96 1 1 sg13_lv_nmos L=0.13u W=0.42u AS=0.0609p AD=0.1626p PS=0.71u
+ PD=1.415u
M$121 1 99 54 1 sg13_lv_nmos L=0.13u W=0.74u AS=0.1626p AD=0.2516p PS=1.415u
+ PD=2.16u
M$122 1 96 87 1 sg13_lv_nmos L=0.13u W=0.42u AS=0.1701p AD=0.0378p PS=1.65u
+ PD=0.6u
M$123 87 54 63 1 sg13_lv_nmos L=0.13u W=0.42u AS=0.0378p AD=0.1428p PS=0.6u
+ PD=1.52u
M$124 43 28 1 1 sg13_lv_nmos L=0.13u W=0.42u AS=0.1428p AD=0.0798p PS=1.52u
+ PD=0.8u
M$125 1 24 47 1 sg13_lv_nmos L=0.13u W=0.42u AS=0.0798p AD=0.0378p PS=0.8u
+ PD=0.6u
M$126 47 27 28 1 sg13_lv_nmos L=0.13u W=0.42u AS=0.0378p AD=0.1428p PS=0.6u
+ PD=1.52u
M$127 100 55 64 1 sg13_lv_nmos L=0.13u W=0.42u AS=0.12665p AD=0.1428p PS=1.145u
+ PD=1.52u
M$128 54 115 100 1 sg13_lv_nmos L=0.13u W=0.74u AS=0.3473p AD=0.12665p PS=2.71u
+ PD=1.145u
M$129 64 65 1 1 sg13_lv_nmos L=0.13u W=0.42u AS=0.1428p AD=0.0798p PS=1.52u
+ PD=0.8u
M$130 1 96 90 1 sg13_lv_nmos L=0.13u W=0.42u AS=0.0798p AD=0.0378p PS=0.8u
+ PD=0.6u
M$131 90 100 65 1 sg13_lv_nmos L=0.13u W=0.42u AS=0.0378p AD=0.1428p PS=0.6u
+ PD=1.52u
M$132 66 100 1 1 sg13_lv_nmos L=0.13u W=0.74u AS=0.2516p AD=0.1406p PS=2.16u
+ PD=1.12u
M$133 1 66 67 1 sg13_lv_nmos L=0.13u W=0.74u AS=0.1406p AD=0.2516p PS=1.12u
+ PD=2.16u
M$135 1 95 102 1 sg13_lv_nmos L=0.13u W=0.74u AS=0.2516p AD=0.2516p PS=2.16u
+ PD=2.16u
M$136 68 10 93 1 sg13_lv_nmos L=0.13u W=0.42u AS=0.1428p AD=0.0609p PS=1.52u
+ PD=0.71u
M$137 93 102 1 1 sg13_lv_nmos L=0.13u W=0.42u AS=0.0609p AD=0.1626p PS=0.71u
+ PD=1.415u
M$138 1 101 56 1 sg13_lv_nmos L=0.13u W=0.74u AS=0.1626p AD=0.2516p PS=1.415u
+ PD=2.16u
M$139 1 102 94 1 sg13_lv_nmos L=0.13u W=0.42u AS=0.1701p AD=0.0378p PS=1.65u
+ PD=0.6u
M$140 94 56 69 1 sg13_lv_nmos L=0.13u W=0.42u AS=0.0378p AD=0.1428p PS=0.6u
+ PD=1.52u
M$142 103 57 70 1 sg13_lv_nmos L=0.13u W=0.42u AS=0.12665p AD=0.1428p PS=1.145u
+ PD=1.52u
M$143 56 116 103 1 sg13_lv_nmos L=0.13u W=0.74u AS=0.3473p AD=0.12665p PS=2.71u
+ PD=1.145u
M$144 70 71 1 1 sg13_lv_nmos L=0.13u W=0.42u AS=0.1428p AD=0.0798p PS=1.52u
+ PD=0.8u
M$145 1 102 92 1 sg13_lv_nmos L=0.13u W=0.42u AS=0.0798p AD=0.0378p PS=0.8u
+ PD=0.6u
M$146 92 103 71 1 sg13_lv_nmos L=0.13u W=0.42u AS=0.0378p AD=0.1428p PS=0.6u
+ PD=1.52u
M$147 72 103 1 1 sg13_lv_nmos L=0.13u W=0.74u AS=0.2516p AD=0.1406p PS=2.16u
+ PD=1.12u
M$148 1 72 29 1 sg13_lv_nmos L=0.13u W=0.74u AS=0.1406p AD=0.2516p PS=1.12u
+ PD=2.16u
M$149 73 104 1 1 sg13_lv_nmos L=0.13u W=0.74u AS=0.2516p AD=0.2516p PS=2.16u
+ PD=2.16u
M$150 74 105 91 1 sg13_lv_nmos L=0.13u W=0.42u AS=0.1428p AD=0.0609p PS=1.52u
+ PD=0.71u
M$151 91 73 1 1 sg13_lv_nmos L=0.13u W=0.42u AS=0.0609p AD=0.1626p PS=0.71u
+ PD=1.415u
M$152 1 106 58 1 sg13_lv_nmos L=0.13u W=0.74u AS=0.1626p AD=0.2516p PS=1.415u
+ PD=2.16u
M$153 1 73 89 1 sg13_lv_nmos L=0.13u W=0.42u AS=0.1701p AD=0.0378p PS=1.65u
+ PD=0.6u
M$154 89 58 75 1 sg13_lv_nmos L=0.13u W=0.42u AS=0.0378p AD=0.1428p PS=0.6u
+ PD=1.52u
M$156 107 59 76 1 sg13_lv_nmos L=0.13u W=0.42u AS=0.12665p AD=0.1428p PS=1.145u
+ PD=1.52u
M$157 58 117 107 1 sg13_lv_nmos L=0.13u W=0.74u AS=0.3473p AD=0.12665p PS=2.71u
+ PD=1.145u
M$158 76 77 1 1 sg13_lv_nmos L=0.13u W=0.42u AS=0.1428p AD=0.0798p PS=1.52u
+ PD=0.8u
M$159 1 73 88 1 sg13_lv_nmos L=0.13u W=0.42u AS=0.0798p AD=0.0378p PS=0.8u
+ PD=0.6u
M$160 88 107 77 1 sg13_lv_nmos L=0.13u W=0.42u AS=0.0378p AD=0.1428p PS=0.6u
+ PD=1.52u
M$161 78 107 1 1 sg13_lv_nmos L=0.13u W=0.74u AS=0.2516p AD=0.1406p PS=2.16u
+ PD=1.12u
M$162 1 78 32 1 sg13_lv_nmos L=0.13u W=0.74u AS=0.1406p AD=0.2516p PS=1.12u
+ PD=2.16u
M$163 1 23 81 1 sg13_lv_nmos L=0.13u W=0.74u AS=0.2516p AD=0.1406p PS=2.16u
+ PD=1.12u
M$164 81 167 1 1 sg13_lv_nmos L=0.13u W=0.74u AS=0.1406p AD=0.2516p PS=1.12u
+ PD=2.16u
M$165 1 104 84 1 sg13_lv_nmos L=0.13u W=0.74u AS=0.2516p AD=0.2516p PS=2.16u
+ PD=2.16u
M$166 1 118 85 1 sg13_lv_nmos L=0.13u W=0.55u AS=0.14875p AD=0.187p PS=1.16u
+ PD=1.78u
M$167 1 85 60 1 sg13_lv_nmos L=0.13u W=0.74u AS=0.14875p AD=0.2886p PS=1.16u
+ PD=2.26u
M$168 62 55 99 1 sg13_lv_nmos L=0.13u W=0.42u AS=0.1296p AD=0.0798p PS=1.52u
+ PD=0.8u
M$169 99 115 63 1 sg13_lv_nmos L=0.13u W=0.42u AS=0.0798p AD=0.2373p PS=0.8u
+ PD=1.97u
M$170 135 164 137 1 sg13_lv_nmos L=0.13u W=0.42u AS=0.1296p AD=0.0798p PS=1.52u
+ PD=0.8u
M$171 137 138 163 1 sg13_lv_nmos L=0.13u W=0.42u AS=0.0798p AD=0.2373p PS=0.8u
+ PD=1.97u
M$172 1 55 115 1 sg13_lv_nmos L=0.13u W=0.74u AS=0.317325p AD=0.2516p PS=1.805u
+ PD=2.16u
M$173 1 210 55 1 sg13_lv_nmos L=0.13u W=0.74u AS=0.317325p AD=0.2516p PS=1.805u
+ PD=2.16u
M$174 68 57 101 1 sg13_lv_nmos L=0.13u W=0.42u AS=0.1296p AD=0.0798p PS=1.52u
+ PD=0.8u
M$175 101 116 69 1 sg13_lv_nmos L=0.13u W=0.42u AS=0.0798p AD=0.2373p PS=0.8u
+ PD=1.97u
M$176 1 57 116 1 sg13_lv_nmos L=0.13u W=0.74u AS=0.317325p AD=0.2516p PS=1.805u
+ PD=2.16u
M$177 1 118 57 1 sg13_lv_nmos L=0.13u W=0.74u AS=0.317325p AD=0.2516p PS=1.805u
+ PD=2.16u
M$178 1 4 192 1 sg13_lv_nmos L=0.13u W=0.64u AS=0.2272p AD=0.0784p PS=1.99u
+ PD=0.885u
M$179 192 165 143 1 sg13_lv_nmos L=0.13u W=0.64u AS=0.0784p AD=0.2176p
+ PS=0.885u PD=1.96u
M$180 74 59 106 1 sg13_lv_nmos L=0.13u W=0.42u AS=0.1296p AD=0.0798p PS=1.52u
+ PD=0.8u
M$181 106 117 75 1 sg13_lv_nmos L=0.13u W=0.42u AS=0.0798p AD=0.2373p PS=0.8u
+ PD=1.97u
M$182 1 59 117 1 sg13_lv_nmos L=0.13u W=0.74u AS=0.317325p AD=0.2516p PS=1.805u
+ PD=2.16u
M$183 1 118 59 1 sg13_lv_nmos L=0.13u W=0.74u AS=0.317325p AD=0.2516p PS=1.805u
+ PD=2.16u
M$184 146 21 194 1 sg13_lv_nmos L=0.13u W=0.64u AS=0.2176p AD=0.0784p PS=1.96u
+ PD=0.885u
M$185 194 32 1 1 sg13_lv_nmos L=0.13u W=0.64u AS=0.0784p AD=0.2272p PS=0.885u
+ PD=1.99u
M$186 108 9 114 1 sg13_lv_nmos L=0.13u W=0.64u AS=0.2176p AD=0.1216p PS=1.96u
+ PD=1.02u
M$187 1 30 114 1 sg13_lv_nmos L=0.13u W=0.64u AS=0.1331p AD=0.1216p PS=1.12u
+ PD=1.02u
M$188 1 108 33 1 sg13_lv_nmos L=0.13u W=0.74u AS=0.1331p AD=0.2516p PS=1.12u
+ PD=2.16u
M$189 147 109 195 1 sg13_lv_nmos L=0.13u W=0.64u AS=0.2176p AD=0.1216p PS=1.96u
+ PD=1.02u
M$190 195 525 1 1 sg13_lv_nmos L=0.13u W=0.64u AS=0.1216p AD=0.1331p PS=1.02u
+ PD=1.12u
M$191 1 147 148 1 sg13_lv_nmos L=0.13u W=0.74u AS=0.1331p AD=0.2516p PS=1.12u
+ PD=2.16u
M$192 1 109 79 1 sg13_lv_nmos L=0.13u W=0.55u AS=0.374p AD=0.174625p PS=2.46u
+ PD=1.185u
M$193 1 525 79 1 sg13_lv_nmos L=0.13u W=0.55u AS=0.15245p AD=0.174625p PS=1.17u
+ PD=1.185u
M$194 1 109 113 1 sg13_lv_nmos L=0.13u W=0.74u AS=0.15245p AD=0.0888p PS=1.17u
+ PD=0.98u
M$195 113 525 80 1 sg13_lv_nmos L=0.13u W=0.74u AS=0.0888p AD=0.1628p PS=0.98u
+ PD=1.18u
M$196 80 79 1 1 sg13_lv_nmos L=0.13u W=0.74u AS=0.1628p AD=0.3108p PS=1.18u
+ PD=2.32u
M$197 1 18 82 1 sg13_lv_nmos L=0.13u W=0.55u AS=0.374p AD=0.174625p PS=2.46u
+ PD=1.185u
M$198 1 151 82 1 sg13_lv_nmos L=0.13u W=0.55u AS=0.15245p AD=0.174625p PS=1.17u
+ PD=1.185u
M$199 1 18 112 1 sg13_lv_nmos L=0.13u W=0.74u AS=0.15245p AD=0.0888p PS=1.17u
+ PD=0.98u
M$200 112 151 83 1 sg13_lv_nmos L=0.13u W=0.74u AS=0.0888p AD=0.1628p PS=0.98u
+ PD=1.18u
M$201 83 82 1 1 sg13_lv_nmos L=0.13u W=0.74u AS=0.1628p AD=0.3108p PS=1.18u
+ PD=2.32u
M$202 152 80 197 1 sg13_lv_nmos L=0.13u W=0.64u AS=0.2176p AD=0.0784p PS=1.96u
+ PD=0.885u
M$203 197 168 1 1 sg13_lv_nmos L=0.13u W=0.64u AS=0.0784p AD=0.2272p PS=0.885u
+ PD=1.99u
M$207 153 170 155 1 sg13_lv_nmos L=0.13u W=0.42u AS=0.1296p AD=0.0798p PS=1.52u
+ PD=0.8u
M$208 155 156 169 1 sg13_lv_nmos L=0.13u W=0.42u AS=0.0798p AD=0.2373p PS=0.8u
+ PD=1.97u
M$212 138 164 1 1 sg13_lv_nmos L=0.13u W=0.74u AS=0.2516p AD=0.317325p PS=2.16u
+ PD=1.805u
M$213 1 210 164 1 sg13_lv_nmos L=0.13u W=0.74u AS=0.317325p AD=0.2516p
+ PS=1.805u PD=2.16u
M$214 180 164 139 1 sg13_lv_nmos L=0.13u W=0.42u AS=0.1428p AD=0.12665p
+ PS=1.52u PD=1.145u
M$215 139 138 136 1 sg13_lv_nmos L=0.13u W=0.74u AS=0.12665p AD=0.3473p
+ PS=1.145u PD=2.71u
M$216 1 166 145 1 sg13_lv_nmos L=0.13u W=0.55u AS=0.15245p AD=0.174625p
+ PS=1.17u PD=1.185u
M$217 145 15 1 1 sg13_lv_nmos L=0.13u W=0.55u AS=0.174625p AD=0.374p PS=1.185u
+ PD=2.46u
M$218 1 145 165 1 sg13_lv_nmos L=0.13u W=0.74u AS=0.3108p AD=0.1628p PS=2.32u
+ PD=1.18u
M$219 165 166 193 1 sg13_lv_nmos L=0.13u W=0.74u AS=0.1628p AD=0.0888p PS=1.18u
+ PD=0.98u
M$220 193 15 1 1 sg13_lv_nmos L=0.13u W=0.74u AS=0.0888p AD=0.15245p PS=0.98u
+ PD=1.17u
M$221 1 23 149 1 sg13_lv_nmos L=0.13u W=0.55u AS=0.374p AD=0.174625p PS=2.46u
+ PD=1.185u
M$222 149 167 1 1 sg13_lv_nmos L=0.13u W=0.55u AS=0.174625p AD=0.15245p
+ PS=1.185u PD=1.17u
M$223 1 23 196 1 sg13_lv_nmos L=0.13u W=0.74u AS=0.15245p AD=0.0888p PS=1.17u
+ PD=0.98u
M$224 196 167 151 1 sg13_lv_nmos L=0.13u W=0.74u AS=0.0888p AD=0.1628p PS=0.98u
+ PD=1.18u
M$225 151 149 1 1 sg13_lv_nmos L=0.13u W=0.74u AS=0.1628p AD=0.3108p PS=1.18u
+ PD=2.32u
M$226 156 170 1 1 sg13_lv_nmos L=0.13u W=0.74u AS=0.2516p AD=0.317325p PS=2.16u
+ PD=1.805u
M$227 1 118 170 1 sg13_lv_nmos L=0.13u W=0.74u AS=0.317325p AD=0.2516p
+ PS=1.805u PD=2.16u
M$228 184 170 157 1 sg13_lv_nmos L=0.13u W=0.42u AS=0.1428p AD=0.12665p
+ PS=1.52u PD=1.145u
M$229 157 156 154 1 sg13_lv_nmos L=0.13u W=0.74u AS=0.12665p AD=0.3473p
+ PS=1.145u PD=2.71u
M$232 133 97 1 1 sg13_lv_nmos L=0.13u W=0.55u AS=0.187p AD=0.18945p PS=1.78u
+ PD=1.27u
M$233 1 97 185 1 sg13_lv_nmos L=0.13u W=0.74u AS=0.18945p AD=0.13135p PS=1.27u
+ PD=1.095u
M$234 185 162 134 1 sg13_lv_nmos L=0.13u W=0.74u AS=0.13135p AD=0.1628p
+ PS=1.095u PD=1.18u
M$235 134 67 186 1 sg13_lv_nmos L=0.13u W=0.74u AS=0.1628p AD=0.3367p PS=1.18u
+ PD=1.65u
M$236 186 133 1 1 sg13_lv_nmos L=0.13u W=0.74u AS=0.3367p AD=0.148p PS=1.65u
+ PD=1.14u
M$237 1 134 98 1 sg13_lv_nmos L=0.13u W=0.74u AS=0.148p AD=0.4033p PS=1.14u
+ PD=2.57u
M$238 141 139 1 1 sg13_lv_nmos L=0.13u W=0.74u AS=0.2516p AD=0.1406p PS=2.16u
+ PD=1.12u
M$239 1 141 109 1 sg13_lv_nmos L=0.13u W=0.74u AS=0.1406p AD=0.2516p PS=1.12u
+ PD=2.16u
M$243 142 12 1 1 sg13_lv_nmos L=0.13u W=0.55u AS=0.187p AD=0.14505p PS=1.78u
+ PD=1.15u
M$244 1 67 191 1 sg13_lv_nmos L=0.13u W=0.74u AS=0.14505p AD=0.1406p PS=1.15u
+ PD=1.12u
M$245 191 142 4 1 sg13_lv_nmos L=0.13u W=0.74u AS=0.1406p AD=0.333p PS=1.12u
+ PD=2.38u
M$247 181 4 1 1 sg13_lv_nmos L=0.13u W=0.74u AS=0.2516p AD=0.1898p PS=2.16u
+ PD=1.36u
M$248 1 165 181 1 sg13_lv_nmos L=0.13u W=0.74u AS=0.1898p AD=0.1406p PS=1.36u
+ PD=1.12u
M$249 181 143 105 1 sg13_lv_nmos L=0.13u W=0.74u AS=0.1406p AD=0.2516p PS=1.12u
+ PD=2.16u
M$254 166 146 182 1 sg13_lv_nmos L=0.13u W=0.74u AS=0.2516p AD=0.1406p PS=2.16u
+ PD=1.12u
M$255 182 21 1 1 sg13_lv_nmos L=0.13u W=0.74u AS=0.1406p AD=0.1898p PS=1.12u
+ PD=1.36u
M$256 1 32 182 1 sg13_lv_nmos L=0.13u W=0.74u AS=0.1898p AD=0.2516p PS=1.36u
+ PD=2.16u
M$259 167 152 183 1 sg13_lv_nmos L=0.13u W=0.74u AS=0.2516p AD=0.1406p PS=2.16u
+ PD=1.12u
M$260 183 80 1 1 sg13_lv_nmos L=0.13u W=0.74u AS=0.1406p AD=0.1898p PS=1.12u
+ PD=1.36u
M$261 1 168 183 1 sg13_lv_nmos L=0.13u W=0.74u AS=0.1898p AD=0.2516p PS=1.36u
+ PD=2.16u
M$262 159 157 1 1 sg13_lv_nmos L=0.13u W=0.74u AS=0.2516p AD=0.1406p PS=2.16u
+ PD=1.12u
M$263 1 159 168 1 sg13_lv_nmos L=0.13u W=0.74u AS=0.1406p AD=0.2516p PS=1.12u
+ PD=2.16u
M$266 1 97 203 1 sg13_lv_nmos L=0.13u W=0.55u AS=0.18945p AD=0.187p PS=1.27u
+ PD=1.78u
M$267 1 97 204 1 sg13_lv_nmos L=0.13u W=0.74u AS=0.18945p AD=0.13135p PS=1.27u
+ PD=1.095u
M$268 204 9 200 1 sg13_lv_nmos L=0.13u W=0.74u AS=0.13135p AD=0.1628p PS=1.095u
+ PD=1.18u
M$269 200 109 205 1 sg13_lv_nmos L=0.13u W=0.74u AS=0.1628p AD=0.3367p PS=1.18u
+ PD=1.65u
M$270 205 203 1 1 sg13_lv_nmos L=0.13u W=0.74u AS=0.3367p AD=0.148p PS=1.65u
+ PD=1.14u
M$271 1 200 201 1 sg13_lv_nmos L=0.13u W=0.74u AS=0.148p AD=0.4033p PS=1.14u
+ PD=2.57u
M$272 1 137 136 1 sg13_lv_nmos L=0.13u W=0.74u AS=0.1626p AD=0.2516p PS=1.415u
+ PD=2.16u
M$273 135 201 187 1 sg13_lv_nmos L=0.13u W=0.42u AS=0.1428p AD=0.0609p PS=1.52u
+ PD=0.71u
M$274 1 132 187 1 sg13_lv_nmos L=0.13u W=0.42u AS=0.1626p AD=0.0609p PS=1.415u
+ PD=0.71u
M$275 1 95 132 1 sg13_lv_nmos L=0.13u W=0.74u AS=0.2516p AD=0.2516p PS=2.16u
+ PD=2.16u
M$278 1 132 188 1 sg13_lv_nmos L=0.13u W=0.42u AS=0.1701p AD=0.0378p PS=1.65u
+ PD=0.6u
M$279 188 136 163 1 sg13_lv_nmos L=0.13u W=0.42u AS=0.0378p AD=0.1428p PS=0.6u
+ PD=1.52u
M$284 180 140 1 1 sg13_lv_nmos L=0.13u W=0.42u AS=0.1428p AD=0.0798p PS=1.52u
+ PD=0.8u
M$285 1 132 190 1 sg13_lv_nmos L=0.13u W=0.42u AS=0.0798p AD=0.0378p PS=0.8u
+ PD=0.6u
M$286 190 139 140 1 sg13_lv_nmos L=0.13u W=0.42u AS=0.0378p AD=0.1428p PS=0.6u
+ PD=1.52u
M$309 1 148 202 1 sg13_lv_nmos L=0.13u W=0.74u AS=0.2516p AD=0.1406p PS=2.16u
+ PD=1.12u
M$310 202 168 206 1 sg13_lv_nmos L=0.13u W=0.74u AS=0.1406p AD=0.1406p PS=1.12u
+ PD=1.12u
M$311 206 80 1 1 sg13_lv_nmos L=0.13u W=0.74u AS=0.1406p AD=0.2516p PS=1.12u
+ PD=2.16u
M$316 1 155 154 1 sg13_lv_nmos L=0.13u W=0.74u AS=0.1626p AD=0.2516p PS=1.415u
+ PD=2.16u
M$317 153 83 198 1 sg13_lv_nmos L=0.13u W=0.42u AS=0.1428p AD=0.0609p PS=1.52u
+ PD=0.71u
M$318 1 84 198 1 sg13_lv_nmos L=0.13u W=0.42u AS=0.1626p AD=0.0609p PS=1.415u
+ PD=0.71u
M$321 1 84 199 1 sg13_lv_nmos L=0.13u W=0.42u AS=0.1701p AD=0.0378p PS=1.65u
+ PD=0.6u
M$322 199 154 169 1 sg13_lv_nmos L=0.13u W=0.42u AS=0.0378p AD=0.1428p PS=0.6u
+ PD=1.52u
M$327 184 158 1 1 sg13_lv_nmos L=0.13u W=0.42u AS=0.1428p AD=0.0798p PS=1.52u
+ PD=0.8u
M$328 1 84 189 1 sg13_lv_nmos L=0.13u W=0.42u AS=0.0798p AD=0.0378p PS=0.8u
+ PD=0.6u
M$329 189 157 158 1 sg13_lv_nmos L=0.13u W=0.42u AS=0.0378p AD=0.1428p PS=0.6u
+ PD=1.52u
M$339 1 211 210 1 sg13_lv_nmos L=0.13u W=11.84u AS=2.3606p AD=2.2496p PS=18.96u
+ PD=17.92u
M$355 1 415 211 1 sg13_lv_nmos L=0.13u W=4.44u AS=0.8436p AD=0.9546p PS=6.72u
+ PD=7.76u
M$379 1 217 212 1 sg13_lv_nmos L=0.13u W=0.74u AS=0.2516p AD=0.1406p PS=2.16u
+ PD=1.12u
M$380 212 202 1 1 sg13_lv_nmos L=0.13u W=0.74u AS=0.1406p AD=0.2516p PS=1.12u
+ PD=2.16u
M$381 1 215 219 1 sg13_lv_nmos L=0.13u W=0.64u AS=0.1331p AD=0.1216p PS=1.12u
+ PD=1.02u
M$382 219 151 214 1 sg13_lv_nmos L=0.13u W=0.64u AS=0.1216p AD=0.2176p PS=1.02u
+ PD=1.96u
M$383 213 214 1 1 sg13_lv_nmos L=0.13u W=0.74u AS=0.2516p AD=0.1331p PS=2.16u
+ PD=1.12u
M$394 1 218 225 1 sg13_lv_nmos L=0.13u W=0.55u AS=0.14875p AD=0.187p PS=1.16u
+ PD=1.78u
M$395 1 225 162 1 sg13_lv_nmos L=0.13u W=0.74u AS=0.14875p AD=0.2886p PS=1.16u
+ PD=2.26u
M$397 220 221 1 1 sg13_lv_nmos L=0.13u W=0.74u AS=0.4033p AD=0.148p PS=2.57u
+ PD=1.14u
M$398 1 226 237 1 sg13_lv_nmos L=0.13u W=0.74u AS=0.148p AD=0.3367p PS=1.14u
+ PD=1.65u
M$399 237 227 221 1 sg13_lv_nmos L=0.13u W=0.74u AS=0.3367p AD=0.1628p PS=1.65u
+ PD=1.18u
M$400 221 109 238 1 sg13_lv_nmos L=0.13u W=0.74u AS=0.1628p AD=0.13135p
+ PS=1.18u PD=1.095u
M$401 238 97 1 1 sg13_lv_nmos L=0.13u W=0.74u AS=0.13135p AD=0.18945p PS=1.095u
+ PD=1.27u
M$402 1 97 226 1 sg13_lv_nmos L=0.13u W=0.55u AS=0.18945p AD=0.187p PS=1.27u
+ PD=1.78u
M$417 1 227 228 1 sg13_lv_nmos L=0.13u W=0.55u AS=0.374p AD=0.174625p PS=2.46u
+ PD=1.185u
M$418 1 30 228 1 sg13_lv_nmos L=0.13u W=0.55u AS=0.15245p AD=0.174625p PS=1.17u
+ PD=1.185u
M$419 1 227 239 1 sg13_lv_nmos L=0.13u W=0.74u AS=0.15245p AD=0.0888p PS=1.17u
+ PD=0.98u
M$420 239 30 222 1 sg13_lv_nmos L=0.13u W=0.74u AS=0.0888p AD=0.1628p PS=0.98u
+ PD=1.18u
M$421 222 228 1 1 sg13_lv_nmos L=0.13u W=0.74u AS=0.1628p AD=0.3108p PS=1.18u
+ PD=2.32u
M$424 1 222 240 1 sg13_lv_nmos L=0.13u W=0.74u AS=0.2516p AD=0.1406p PS=2.16u
+ PD=1.12u
M$425 240 229 292 1 sg13_lv_nmos L=0.13u W=0.74u AS=0.1406p AD=0.2516p PS=1.12u
+ PD=2.16u
M$428 1 229 242 1 sg13_lv_nmos L=0.13u W=0.64u AS=0.2272p AD=0.0784p PS=1.99u
+ PD=0.885u
M$429 242 222 230 1 sg13_lv_nmos L=0.13u W=0.64u AS=0.0784p AD=0.2176p
+ PS=0.885u PD=1.96u
M$430 1 229 231 1 sg13_lv_nmos L=0.13u W=0.74u AS=0.1898p AD=0.2516p PS=1.36u
+ PD=2.16u
M$431 1 222 231 1 sg13_lv_nmos L=0.13u W=0.74u AS=0.1898p AD=0.1406p PS=1.36u
+ PD=1.12u
M$432 231 230 217 1 sg13_lv_nmos L=0.13u W=0.74u AS=0.1406p AD=0.2516p PS=1.12u
+ PD=2.16u
M$435 1 224 223 1 sg13_lv_nmos L=0.13u W=1.48u AS=0.3922p AD=0.3922p PS=3.28u
+ PD=3.28u
M$437 1 212 224 1 sg13_lv_nmos L=0.13u W=0.74u AS=0.3811p AD=0.1406p PS=2.51u
+ PD=1.12u
M$438 224 81 243 1 sg13_lv_nmos L=0.13u W=0.74u AS=0.1406p AD=0.09435p PS=1.12u
+ PD=0.995u
M$439 243 232 1 1 sg13_lv_nmos L=0.13u W=0.74u AS=0.09435p AD=0.2516p PS=0.995u
+ PD=2.16u
M$440 1 202 233 1 sg13_lv_nmos L=0.13u W=0.55u AS=0.374p AD=0.174625p PS=2.46u
+ PD=1.185u
M$441 1 217 233 1 sg13_lv_nmos L=0.13u W=0.55u AS=0.15245p AD=0.174625p
+ PS=1.17u PD=1.185u
M$442 1 202 244 1 sg13_lv_nmos L=0.13u W=0.74u AS=0.15245p AD=0.0888p PS=1.17u
+ PD=0.98u
M$443 244 217 215 1 sg13_lv_nmos L=0.13u W=0.74u AS=0.0888p AD=0.1628p PS=0.98u
+ PD=1.18u
M$444 215 233 1 1 sg13_lv_nmos L=0.13u W=0.74u AS=0.1628p AD=0.3108p PS=1.18u
+ PD=2.32u
M$445 1 215 241 1 sg13_lv_nmos L=0.13u W=0.64u AS=0.2272p AD=0.0784p PS=1.99u
+ PD=0.885u
M$446 241 278 234 1 sg13_lv_nmos L=0.13u W=0.64u AS=0.0784p AD=0.2176p
+ PS=0.885u PD=1.96u
M$447 1 215 235 1 sg13_lv_nmos L=0.13u W=0.74u AS=0.1898p AD=0.2516p PS=1.36u
+ PD=2.16u
M$448 1 278 235 1 sg13_lv_nmos L=0.13u W=0.74u AS=0.1898p AD=0.1406p PS=1.36u
+ PD=1.12u
M$449 235 234 246 1 sg13_lv_nmos L=0.13u W=0.74u AS=0.1406p AD=0.2516p PS=1.12u
+ PD=2.16u
M$454 118 236 1 1 sg13_lv_nmos L=0.13u W=0.74u AS=0.2886p AD=0.14875p PS=2.26u
+ PD=1.16u
M$455 1 247 236 1 sg13_lv_nmos L=0.13u W=0.55u AS=0.14875p AD=0.187p PS=1.16u
+ PD=1.78u
M$460 1 95 257 1 sg13_lv_nmos L=0.13u W=0.74u AS=0.2516p AD=0.2516p PS=2.16u
+ PD=2.16u
M$461 256 286 262 1 sg13_lv_nmos L=0.13u W=0.42u AS=0.1296p AD=0.0798p PS=1.52u
+ PD=0.8u
M$462 262 263 300 1 sg13_lv_nmos L=0.13u W=0.42u AS=0.0798p AD=0.2373p PS=0.8u
+ PD=1.97u
M$463 263 286 1 1 sg13_lv_nmos L=0.13u W=0.74u AS=0.2516p AD=0.317325p PS=2.16u
+ PD=1.805u
M$464 1 210 286 1 sg13_lv_nmos L=0.13u W=0.74u AS=0.317325p AD=0.2516p
+ PS=1.805u PD=2.16u
M$465 301 286 287 1 sg13_lv_nmos L=0.13u W=0.42u AS=0.1428p AD=0.12665p
+ PS=1.52u PD=1.145u
M$466 287 263 261 1 sg13_lv_nmos L=0.13u W=0.74u AS=0.12665p AD=0.3473p
+ PS=1.145u PD=2.71u
M$467 264 287 1 1 sg13_lv_nmos L=0.13u W=0.74u AS=0.2516p AD=0.1406p PS=2.16u
+ PD=1.12u
M$468 1 264 227 1 sg13_lv_nmos L=0.13u W=0.74u AS=0.1406p AD=0.2516p PS=1.12u
+ PD=2.16u
M$470 265 289 313 1 sg13_lv_nmos L=0.13u W=0.74u AS=0.2516p AD=0.1406p PS=2.16u
+ PD=1.12u
M$471 313 30 1 1 sg13_lv_nmos L=0.13u W=0.74u AS=0.1406p AD=0.2516p PS=1.12u
+ PD=2.16u
M$474 1 291 316 1 sg13_lv_nmos L=0.13u W=0.64u AS=0.2272p AD=0.0784p PS=1.99u
+ PD=0.885u
M$475 316 290 266 1 sg13_lv_nmos L=0.13u W=0.64u AS=0.0784p AD=0.2176p
+ PS=0.885u PD=1.96u
M$476 302 291 1 1 sg13_lv_nmos L=0.13u W=0.74u AS=0.2516p AD=0.1898p PS=2.16u
+ PD=1.36u
M$477 1 290 302 1 sg13_lv_nmos L=0.13u W=0.74u AS=0.1898p AD=0.1406p PS=1.36u
+ PD=1.12u
M$478 302 266 267 1 sg13_lv_nmos L=0.13u W=0.74u AS=0.1406p AD=0.2516p PS=1.12u
+ PD=2.16u
M$479 1 30 317 1 sg13_lv_nmos L=0.13u W=0.74u AS=0.2516p AD=0.1406p PS=2.16u
+ PD=1.12u
M$480 317 227 268 1 sg13_lv_nmos L=0.13u W=0.74u AS=0.1406p AD=0.2516p PS=1.12u
+ PD=2.16u
M$481 1 267 318 1 sg13_lv_nmos L=0.13u W=0.74u AS=0.2886p AD=0.1406p PS=2.26u
+ PD=1.12u
M$482 318 292 319 1 sg13_lv_nmos L=0.13u W=0.74u AS=0.1406p AD=0.1406p PS=1.12u
+ PD=1.12u
M$483 319 268 258 1 sg13_lv_nmos L=0.13u W=0.74u AS=0.1406p AD=0.2516p PS=1.12u
+ PD=2.16u
M$484 269 258 1 1 sg13_lv_nmos L=0.13u W=0.55u AS=0.187p AD=0.17255p PS=1.78u
+ PD=1.25u
M$485 1 269 270 1 sg13_lv_nmos L=0.13u W=0.74u AS=0.17255p AD=0.1406p PS=1.25u
+ PD=1.12u
M$486 270 348 1 1 sg13_lv_nmos L=0.13u W=0.74u AS=0.1406p AD=0.2516p PS=1.12u
+ PD=2.16u
M$487 271 525 1 1 sg13_lv_nmos L=0.13u W=0.55u AS=0.187p AD=0.14875p PS=1.78u
+ PD=1.16u
M$488 1 271 30 1 sg13_lv_nmos L=0.13u W=0.74u AS=0.14875p AD=0.2886p PS=1.16u
+ PD=2.26u
M$492 272 104 1 1 sg13_lv_nmos L=0.13u W=0.74u AS=0.2516p AD=0.2516p PS=2.16u
+ PD=2.16u
M$494 1 213 303 1 sg13_lv_nmos L=0.13u W=1.48u AS=0.3922p AD=0.2812p PS=3.28u
+ PD=2.24u
M$495 303 18 274 1 sg13_lv_nmos L=0.13u W=1.48u AS=0.2812p AD=0.2812p PS=2.24u
+ PD=2.24u
M$498 1 223 274 1 sg13_lv_nmos L=0.13u W=1.48u AS=0.2812p AD=0.3922p PS=2.24u
+ PD=3.28u
M$500 1 223 276 1 sg13_lv_nmos L=0.13u W=0.64u AS=0.15745p AD=0.1216p PS=1.175u
+ PD=1.02u
M$501 276 18 315 1 sg13_lv_nmos L=0.13u W=0.64u AS=0.1216p AD=0.0816p PS=1.02u
+ PD=0.895u
M$502 315 213 1 1 sg13_lv_nmos L=0.13u W=0.64u AS=0.0816p AD=0.2176p PS=0.895u
+ PD=1.96u
M$503 275 276 1 1 sg13_lv_nmos L=0.13u W=0.74u AS=0.2351p AD=0.15745p PS=2.16u
+ PD=1.175u
M$504 1 217 314 1 sg13_lv_nmos L=0.13u W=0.74u AS=0.2516p AD=0.1406p PS=2.16u
+ PD=1.12u
M$505 314 202 232 1 sg13_lv_nmos L=0.13u W=0.74u AS=0.1406p AD=0.2516p PS=1.12u
+ PD=2.16u
M$506 1 81 278 1 sg13_lv_nmos L=0.13u W=0.74u AS=0.2516p AD=0.1406p PS=2.16u
+ PD=1.12u
M$507 278 18 312 1 sg13_lv_nmos L=0.13u W=0.74u AS=0.1406p AD=0.1406p PS=1.12u
+ PD=1.12u
M$508 312 151 1 1 sg13_lv_nmos L=0.13u W=0.74u AS=0.1406p AD=0.2516p PS=1.12u
+ PD=2.16u
M$510 1 104 260 1 sg13_lv_nmos L=0.13u W=0.74u AS=0.2516p AD=0.2516p PS=2.16u
+ PD=2.16u
M$511 259 293 281 1 sg13_lv_nmos L=0.13u W=0.42u AS=0.1296p AD=0.0798p PS=1.52u
+ PD=0.8u
M$512 281 282 304 1 sg13_lv_nmos L=0.13u W=0.42u AS=0.0798p AD=0.2373p PS=0.8u
+ PD=1.97u
M$513 282 293 1 1 sg13_lv_nmos L=0.13u W=0.74u AS=0.2516p AD=0.317325p PS=2.16u
+ PD=1.805u
M$514 1 118 293 1 sg13_lv_nmos L=0.13u W=0.74u AS=0.317325p AD=0.2516p
+ PS=1.805u PD=2.16u
M$515 305 293 294 1 sg13_lv_nmos L=0.13u W=0.42u AS=0.1428p AD=0.12665p
+ PS=1.52u PD=1.145u
M$516 294 282 280 1 sg13_lv_nmos L=0.13u W=0.74u AS=0.12665p AD=0.3473p
+ PS=1.145u PD=2.71u
M$517 283 294 1 1 sg13_lv_nmos L=0.13u W=0.74u AS=0.2516p AD=0.1406p PS=2.16u
+ PD=1.12u
M$518 1 283 229 1 sg13_lv_nmos L=0.13u W=0.74u AS=0.1406p AD=0.2516p PS=1.12u
+ PD=2.16u
M$521 1 95 320 1 sg13_lv_nmos L=0.13u W=0.74u AS=0.2516p AD=0.2516p PS=2.16u
+ PD=2.16u
M$522 321 396 358 1 sg13_lv_nmos L=0.13u W=0.42u AS=0.1428p AD=0.0609p PS=1.52u
+ PD=0.71u
M$523 358 320 1 1 sg13_lv_nmos L=0.13u W=0.42u AS=0.0609p AD=0.1626p PS=0.71u
+ PD=1.415u
M$524 1 374 322 1 sg13_lv_nmos L=0.13u W=0.74u AS=0.1626p AD=0.2516p PS=1.415u
+ PD=2.16u
M$525 1 262 261 1 sg13_lv_nmos L=0.13u W=0.74u AS=0.1626p AD=0.2516p PS=1.415u
+ PD=2.16u
M$526 256 220 307 1 sg13_lv_nmos L=0.13u W=0.42u AS=0.1428p AD=0.0609p PS=1.52u
+ PD=0.71u
M$527 1 257 307 1 sg13_lv_nmos L=0.13u W=0.42u AS=0.1626p AD=0.0609p PS=1.415u
+ PD=0.71u
M$528 1 320 359 1 sg13_lv_nmos L=0.13u W=0.42u AS=0.1701p AD=0.0378p PS=1.65u
+ PD=0.6u
M$529 359 322 342 1 sg13_lv_nmos L=0.13u W=0.42u AS=0.0378p AD=0.1428p PS=0.6u
+ PD=1.52u
M$530 1 257 308 1 sg13_lv_nmos L=0.13u W=0.42u AS=0.1701p AD=0.0378p PS=1.65u
+ PD=0.6u
M$531 308 261 300 1 sg13_lv_nmos L=0.13u W=0.42u AS=0.0378p AD=0.1428p PS=0.6u
+ PD=1.52u
M$532 343 323 324 1 sg13_lv_nmos L=0.13u W=0.42u AS=0.12665p AD=0.1428p
+ PS=1.145u PD=1.52u
M$533 322 375 343 1 sg13_lv_nmos L=0.13u W=0.74u AS=0.3473p AD=0.12665p
+ PS=2.71u PD=1.145u
M$534 301 288 1 1 sg13_lv_nmos L=0.13u W=0.42u AS=0.1428p AD=0.0798p PS=1.52u
+ PD=0.8u
M$535 1 257 309 1 sg13_lv_nmos L=0.13u W=0.42u AS=0.0798p AD=0.0378p PS=0.8u
+ PD=0.6u
M$536 309 287 288 1 sg13_lv_nmos L=0.13u W=0.42u AS=0.0378p AD=0.1428p PS=0.6u
+ PD=1.52u
M$537 324 325 1 1 sg13_lv_nmos L=0.13u W=0.42u AS=0.1428p AD=0.0798p PS=1.52u
+ PD=0.8u
M$538 1 320 362 1 sg13_lv_nmos L=0.13u W=0.42u AS=0.0798p AD=0.0378p PS=0.8u
+ PD=0.6u
M$539 362 343 325 1 sg13_lv_nmos L=0.13u W=0.42u AS=0.0378p AD=0.1428p PS=0.6u
+ PD=1.52u
M$540 326 343 1 1 sg13_lv_nmos L=0.13u W=0.74u AS=0.2516p AD=0.1406p PS=2.16u
+ PD=1.12u
M$541 1 326 289 1 sg13_lv_nmos L=0.13u W=0.74u AS=0.1406p AD=0.2516p PS=1.12u
+ PD=2.16u
M$542 1 289 344 1 sg13_lv_nmos L=0.13u W=0.55u AS=0.374p AD=0.174625p PS=2.46u
+ PD=1.185u
M$543 1 30 344 1 sg13_lv_nmos L=0.13u W=0.55u AS=0.15245p AD=0.174625p PS=1.17u
+ PD=1.185u
M$544 1 289 363 1 sg13_lv_nmos L=0.13u W=0.74u AS=0.15245p AD=0.0888p PS=1.17u
+ PD=0.98u
M$545 363 30 290 1 sg13_lv_nmos L=0.13u W=0.74u AS=0.0888p AD=0.1628p PS=0.98u
+ PD=1.18u
M$546 290 344 1 1 sg13_lv_nmos L=0.13u W=0.74u AS=0.1628p AD=0.3108p PS=1.18u
+ PD=2.32u
M$547 1 290 365 1 sg13_lv_nmos L=0.13u W=0.74u AS=0.2516p AD=0.1406p PS=2.16u
+ PD=1.12u
M$548 365 291 345 1 sg13_lv_nmos L=0.13u W=0.74u AS=0.1406p AD=0.2516p PS=1.12u
+ PD=2.16u
M$549 1 347 369 1 sg13_lv_nmos L=0.13u W=0.74u AS=0.2886p AD=0.1406p PS=2.26u
+ PD=1.12u
M$550 369 345 367 1 sg13_lv_nmos L=0.13u W=0.74u AS=0.1406p AD=0.1406p PS=1.12u
+ PD=1.12u
M$551 367 265 327 1 sg13_lv_nmos L=0.13u W=0.74u AS=0.1406p AD=0.2516p PS=1.12u
+ PD=2.16u
M$553 1 274 351 1 sg13_lv_nmos L=0.13u W=0.74u AS=0.1898p AD=0.2516p PS=1.36u
+ PD=2.16u
M$554 1 270 351 1 sg13_lv_nmos L=0.13u W=0.74u AS=0.1898p AD=0.1406p PS=1.36u
+ PD=1.12u
M$555 351 350 328 1 sg13_lv_nmos L=0.13u W=0.74u AS=0.1406p AD=0.2516p PS=1.12u
+ PD=2.16u
M$556 329 328 370 1 sg13_lv_nmos L=0.13u W=0.42u AS=0.1428p AD=0.0609p PS=1.52u
+ PD=0.71u
M$557 370 272 1 1 sg13_lv_nmos L=0.13u W=0.42u AS=0.0609p AD=0.1626p PS=0.71u
+ PD=1.415u
M$558 1 379 330 1 sg13_lv_nmos L=0.13u W=0.74u AS=0.1626p AD=0.2516p PS=1.415u
+ PD=2.16u